case_ACTIVSg2000.m
function mpc = case_ACTIVSg2000
%CASE_ACTIVSG2000  Synthetic Texas 2000-bus power system model.
%
%   This is an entirely synthetic 2000 bus case, geographically situated
%   in the US state of Texas. The case is designed with a 500, 230, 161
%   115, 24, 22, 20, 18, 13.8 and 13.2 kV transmission network to serve
%   a load that roughly mimics the actual population of its geographic
%   footprint. The synthetic transmission system was designed by
%   algorithms described in [1] to be statistically similar to actual
%   transmission system models but without modeling any actual lines.
%
%   When publishing results based on this data, please cite:
%
%   [1] A.B. Birchfield, T. Xu, K.M. Gegner, K.S. Shetye, T.J. Overbye,
%       "Grid Structural Characteristics as Validation Criteria for
%       Synthetic Networks," IEEE Transactions on Power Systems, 2017.
%
%   This is a synthetic power system model that does not represent the
%   actual grid. It was developed as part of the US ARPA-E GRID DATA
%   research project and contains no CEII.
%
%   One-line diagrams and other data formats available at:
%       https://electricgrids.engr.tamu.edu
%
%   May 16, 2017

%   Created from ACTIV_SG_2000.pwb, saved by
%   PowerWorld Simulator, version 20 Beta, build date May 19, 2017,
%   then by MATPOWER 6.

%   MATPOWER
%   Copyright (c) 2017 by A.B. Birchfield, T. Xu, K.M. Gegner, K.S. Shetye,
%   and T.J. Overbye
%   Licensed under the Creative Commons Attribution 4.0 International license,
%   http://creativecommons.org/licenses/by/4.0/

%% MATPOWER Case Format : Version 2
mpc.version = '2';

%%-----  Power Flow Data  -----%%
%% system MVA base
mpc.baseMVA = 100;

%% bus data
%	bus_i	type	Pd	Qd	Gs	Bs	area	Vm	Va	baseKV	zone	Vmax	Vmin	lam_P	lam_Q	mu_Vmax	mu_Vmin
mpc.bus = [
	1001  1  20.78  5.89  0  0.0  1  0.9983719999999999  -22.3462  115.0  9  1.1  0.9  0.0  0  0  0  ;
1002  1  15.41  4.37  0  0.0  1  1.02291  -17.8585  115.0  9  1.1  0.9  0.0  0  0  0  ;
1003  1  0.0  0.0  0  0.0  1  1.0141  -17.5032  115.0  9  1.1  0.9  0.0  0  0  0  ;
1004  2  0.0  0.0  0  0.0  1  1.02005  -19.3247  230.0  9  1.1  0.9  0.0  0  0  0  ;
1005  1  0.0  0.0  0  0.0  1  1.0123799999999998  -15.9276  115.0  9  1.1  0.9  0.0  0  0  0  ;
1006  2  0.0  0.0  0  0.0  1  1.00599  -13.7815  13.8  9  1.1  0.9  0.0  0  0  0  ;
1007  1  7.01  1.99  0  -0.77  1  1.03  -18.2162  115.0  9  1.1  0.9  0.0  0  0  0  ;
1008  1  0.0  0.0  0  0.0  1  1.02615  -8.58995  115.0  9  1.1  0.9  0.0  0  0  0  ;
1009  2  0.0  0.0  0  0.0  1  1.0162  -5.3388599999999995  13.8  9  1.1  0.9  0.0  0  0  0  ;
1010  1  0.0  0.0  0  -3.33  1  1.03  -16.5896  115.0  9  1.1  0.9  0.0  0  0  0  ;
1011  2  0.0  0.0  0  0.0  1  1.0302200000000001  -14.8392  22.0  9  1.1  0.9  0.0  0  0  0  ;
1012  1  2.99  0.85  0  11.3  1  1.03  -25.191  115.0  9  1.1  0.9  0.0  0  0  0  ;
1013  1  29.23  8.28  0  0.0  1  1.0142799999999998  -15.1971  115.0  9  1.1  0.9  0.0  0  0  0  ;
1014  1  2.22  0.63  0  0.0  1  1.02099  -11.7776  115.0  9  1.1  0.9  0.0  0  0  0  ;
1015  1  7.51  2.13  0  0.0  1  1.03195  -17.9787  115.0  9  1.1  0.9  0.0  0  0  0  ;
1016  1  2.89  0.82  0  39.43  1  1.03  -15.3915  115.0  9  1.1  0.9  0.0  0  0  0  ;
1017  1  18.34  5.2  0  0.0  1  0.996559  -21.1078  115.0  9  1.1  0.9  0.0  0  0  0  ;
1018  1  0.07  0.02  0  0.0  1  1.0003  -19.8254  115.0  9  1.1  0.9  0.0  0  0  0  ;
1019  1  61.78  17.5  0  261.44  1  1.03  -22.081999999999997  115.0  9  1.1  0.9  0.0  0  0  0  ;
1020  1  0.0  0.0  0  71.32  1  1.03  -15.1575  115.0  9  1.1  0.9  0.0  0  0  0  ;
1021  2  0.0  0.0  0  0.0  1  1.00587  -8.62704  13.8  9  1.1  0.9  0.0  0  0  0  ;
1022  1  0.0  0.0  0  0.0  1  1.01661  -16.6531  115.0  9  1.1  0.9  0.0  0  0  0  ;
1023  2  0.0  0.0  0  0.0  1  1.01  -7.774760000000001  13.8  9  1.1  0.9  0.0  0  0  0  ;
1024  1  63.04  17.86  0  0.0  1  0.999026  -18.8019  115.0  9  1.1  0.9  0.0  0  0  0  ;
1025  1  0.0  0.0  0  0.0  1  1.02427  -14.0817  115.0  9  1.1  0.9  0.0  0  0  0  ;
1026  2  0.0  0.0  0  0.0  1  1.0  -4.6170800000000005  13.8  9  1.1  0.9  0.0  0  0  0  ;
1027  1  101.21  28.68  0  88.7  1  1.03  -25.5841  115.0  9  1.1  0.9  0.0  0  0  0  ;
1028  1  10.01  2.84  0  0.0  1  1.01989  -18.2276  115.0  9  1.1  0.9  0.0  0  0  0  ;
1029  1  83.18  23.57  0  61.2  1  1.03  -24.6101  115.0  9  1.1  0.9  0.0  0  0  0  ;
1030  1  24.63  6.98  0  0.0  1  1.0225600000000001  -13.3008  115.0  9  1.1  0.9  0.0  0  0  0  ;
1031  1  9.25  2.62  0  0.0  1  1.02159  -17.4156  115.0  9  1.1  0.9  0.0  0  0  0  ;
1032  1  0.0  0.0  0  0.0  1  1.0098799999999999  -12.2347  115.0  9  1.1  0.9  0.0  0  0  0  ;
1033  2  0.0  0.0  0  61.95  1  1.03004  -16.769000000000002  230.0  9  1.1  0.9  0.0  0  0  0  ;
1034  1  0.0  0.0  0  0.0  1  1.01013  -14.1633  115.0  9  1.1  0.9  0.0  0  0  0  ;
1035  2  0.0  0.0  0  0.0  1  1.00042  -10.8778  13.8  9  1.1  0.9  0.0  0  0  0  ;
1036  1  13.6  3.85  0  0.0  1  1.00226  -12.4195  115.0  9  1.1  0.9  0.0  0  0  0  ;
1037  1  102.24  28.97  0  0.0  1  0.9904930000000001  -22.1747  115.0  9  1.1  0.9  0.0  0  0  0  ;
1038  1  0.0  0.0  0  0.0  1  1.02516  -7.64916  115.0  9  1.1  0.9  0.0  0  0  0  ;
1039  2  0.0  0.0  0  0.0  1  1.0048  -2.33133  22.0  9  1.1  0.9  0.0  0  0  0  ;
1040  1  44.36  12.57  0  0.0  1  1.00614  -20.1249  115.0  9  1.1  0.9  0.0  0  0  0  ;
1041  1  0.0  0.0  0  0.0  1  1.00661  -14.9184  115.0  9  1.1  0.9  0.0  0  0  0  ;
1042  2  0.0  0.0  0  0.0  1  1.00661  -14.9184  13.8  9  1.1  0.9  0.0  0  0  0  ;
1043  2  0.0  0.0  0  0.0  1  1.0  -11.6843  13.8  9  1.1  0.9  0.0  0  0  0  ;
1044  1  14.68  4.16  0  0.0  1  1.0179200000000002  -25.6916  115.0  9  1.1  0.9  0.0  0  0  0  ;
1045  1  98.56  27.93  0  0.0  1  1.0034399999999999  -24.0542  115.0  9  1.1  0.9  0.0  0  0  0  ;
1046  1  11.08  3.14  0  13.12  1  1.03  -22.3261  115.0  9  1.1  0.9  0.0  0  0  0  ;
1047  1  0.0  0.0  0  0.0  1  1.01175  -13.1298  115.0  9  1.1  0.9  0.0  0  0  0  ;
1048  2  0.0  0.0  0  0.0  1  1.01175  -13.1298  18.0  9  1.1  0.9  0.0  0  0  0  ;
1049  2  0.0  0.0  0  0.0  1  1.01175  -13.1298  18.0  9  1.1  0.9  0.0  0  0  0  ;
1050  2  0.0  0.0  0  0.0  1  1.00076  -8.084019999999999  18.0  9  1.1  0.9  0.0  0  0  0  ;
1051  2  0.0  0.0  0  0.0  1  1.0  -6.60451  18.0  9  1.1  0.9  0.0  0  0  0  ;
1052  2  0.0  0.0  0  0.0  1  1.00416  -8.94709  18.0  9  1.1  0.9  0.0  0  0  0  ;
1053  2  0.0  0.0  0  0.0  1  1.02653  -17.1224  230.0  9  1.1  0.9  0.0  0  0  0  ;
1054  1  14.99  4.25  0  0.0  1  1.0132  -22.1326  115.0  9  1.1  0.9  0.0  0  0  0  ;
1055  1  3.98  1.13  0  0.0  1  1.00688  -18.4852  115.0  9  1.1  0.9  0.0  0  0  0  ;
1056  1  0.0  0.0  0  33.22  1  1.03  -21.5409  115.0  9  1.1  0.9  0.0  0  0  0  ;
1057  2  0.0  0.0  0  0.0  1  1.03  -21.5409  18.0  9  1.1  0.9  0.0  0  0  0  ;
1058  1  13.46  3.81  0  0.0  1  1.02675  -11.1878  115.0  9  1.1  0.9  0.0  0  0  0  ;
1059  2  0.0  0.0  0  0.0  1  1.02675  -11.1878  22.0  9  1.1  0.9  0.0  0  0  0  ;
1060  2  0.0  0.0  0  0.0  1  1.02675  -11.1878  22.0  9  1.1  0.9  0.0  0  0  0  ;
1061  1  0.0  0.0  0  0.0  1  1.01393  -17.0591  115.0  9  1.1  0.9  0.0  0  0  0  ;
1062  2  0.0  0.0  0  0.0  1  1.01393  -17.0591  13.8  9  1.1  0.9  0.0  0  0  0  ;
1063  2  0.0  0.0  0  0.0  1  1.01393  -17.0591  13.8  9  1.1  0.9  0.0  0  0  0  ;
1064  1  123.76  35.07  0  0.0  1  0.993391  -23.7293  115.0  9  1.1  0.9  0.0  0  0  0  ;
1065  1  0.0  0.0  0  0.0  1  1.00912  -14.7391  115.0  9  1.1  0.9  0.0  0  0  0  ;
1066  2  0.0  0.0  0  0.0  1  1.0  -7.230580000000001  13.8  9  1.1  0.9  0.0  0  0  0  ;
1067  1  101.55  28.77  0  0.0  1  1.00407  -15.5007  115.0  9  1.1  0.9  0.0  0  0  0  ;
1068  1  59.4  16.83  0  0.0  1  0.9934719999999999  -16.2849  115.0  9  1.1  0.9  0.0  0  0  0  ;
1069  1  0.0  0.0  0  0.0  1  1.02867  -8.71349  115.0  9  1.1  0.9  0.0  0  0  0  ;
1070  2  0.0  0.0  0  0.0  1  1.04  -4.2219999999999995  13.8  9  1.1  0.9  0.0  0  0  0  ;
1071  1  91.46  25.91  0  0.0  1  1.0040200000000001  -21.1126  115.0  9  1.1  0.9  0.0  0  0  0  ;
1072  2  0.0  0.0  0  0.0  1  1.01  -11.8352  18.0  9  1.1  0.9  0.0  0  0  0  ;
1073  2  0.0  0.0  0  0.0  1  1.01  -5.5374300000000005  18.0  9  1.1  0.9  0.0  0  0  0  ;
1074  2  0.0  0.0  0  0.0  1  1.01  -7.54851  18.0  9  1.1  0.9  0.0  0  0  0  ;
1075  2  0.0  0.0  0  0.0  1  1.01  -10.2802  18.0  9  1.1  0.9  0.0  0  0  0  ;
1076  2  0.0  0.0  0  0.0  1  1.0040200000000001  -21.1126  18.0  9  1.1  0.9  0.0  0  0  0  ;
1077  2  0.0  0.0  0  0.0  1  1.0040200000000001  -21.1126  18.0  9  1.1  0.9  0.0  0  0  0  ;
1078  2  0.0  0.0  0  0.0  1  1.01  -10.8005  18.0  9  1.1  0.9  0.0  0  0  0  ;
1079  2  0.0  0.0  0  0.0  1  1.0204600000000001  -37.6396  500.0  9  1.1  0.9  0.0  0  0  0  ;
1080  2  0.0  0.0  0  0.0  1  1.01  -10.2023  18.0  9  1.1  0.9  0.0  0  0  0  ;
1081  2  0.0  0.0  0  42.78  1  1.03  -18.4788  230.0  9  1.1  0.9  0.0  0  0  0  ;
1082  2  0.0  0.0  0  0.0  1  1.0271700000000001  -5.936719999999999  115.0  9  1.1  0.9  0.0  0  0  0  ;
1083  1  39.95  11.32  0  32.03  1  1.03  -9.8632  115.0  9  1.1  0.9  0.0  0  0  0  ;
1084  2  0.0  0.0  0  0.0  1  1.03696  -16.3943  115.0  9  1.1  0.9  0.0  0  0  0  ;
1085  1  21.3  6.03  0  0.0  1  1.01578  -15.0727  115.0  9  1.1  0.9  0.0  0  0  0  ;
1086  1  39.67  11.24  0  37.39  1  1.03  -17.3999  115.0  9  1.1  0.9  0.0  0  0  0  ;
1087  1  0.91  0.26  0  4.9  1  1.03  -16.049  115.0  9  1.1  0.9  0.0  0  0  0  ;
1088  2  0.0  0.0  0  0.0  1  1.0  -11.7123  115.0  9  1.1  0.9  0.0  0  0  0  ;
1089  1  40.6  11.5  0  0.0  1  0.9878979999999999  -21.4551  115.0  9  1.1  0.9  0.0  0  0  0  ;
1090  2  0.0  0.0  0  0.0  1  1.02  -15.7262  115.0  9  1.1  0.9  0.0  0  0  0  ;
1091  1  11.62  3.29  0  0.0  1  1.03131  -31.796999999999997  161.0  9  1.1  0.9  0.0  0  0  0  ;
2001  1  48.36  13.7  0  0.0  2  1.00763  -59.6547  161.0  11  1.1  0.9  0.0  0  0  0  ;
2002  1  0.0  0.0  0  0.0  2  1.02037  -61.156000000000006  500.0  11  1.1  0.9  0.0  0  0  0  ;
2003  1  0.0  0.0  0  0.0  2  1.02225  -63.38  161.0  11  1.1  0.9  0.0  0  0  0  ;
2004  2  0.0  0.0  0  0.0  2  1.02037  -61.156000000000006  13.8  11  1.1  0.9  0.0  0  0  0  ;
2005  2  0.0  0.0  0  0.0  2  1.02037  -61.156000000000006  13.8  11  1.1  0.9  0.0  0  0  0  ;
2006  2  0.0  0.0  0  0.0  2  1.02037  -61.156000000000006  13.8  11  1.1  0.9  0.0  0  0  0  ;
2007  1  9.54  2.7  0  0.0  2  1.00899  -59.4227  161.0  11  1.1  0.9  0.0  0  0  0  ;
2008  1  8.06  2.28  0  0.0  2  1.01365  -33.769  161.0  10  1.1  0.9  0.0  0  0  0  ;
2009  1  39.14  11.09  0  131.5  2  1.03  -45.1637  161.0  11  1.1  0.9  0.0  0  0  0  ;
2010  1  56.81  16.09  0  28.69  2  1.03  -36.6402  161.0  10  1.1  0.9  0.0  0  0  0  ;
2011  1  0.0  0.0  0  0.0  2  1.02976  -33.0724  500.0  10  1.1  0.9  0.0  0  0  0  ;
2012  1  0.0  0.0  0  0.0  2  1.02029  -30.8629  161.0  10  1.1  0.9  0.0  0  0  0  ;
2013  2  0.0  0.0  0  0.0  2  1.0213  -30.6904  18.0  10  1.1  0.9  0.0  0  0  0  ;
2014  1  25.43  7.2  0  0.0  2  1.01454  -34.2962  161.0  10  1.1  0.9  0.0  0  0  0  ;
2015  1  4.69  1.33  0  0.0  2  1.0155299999999998  -62.7747  161.0  11  1.1  0.9  0.0  0  0  0  ;
2016  1  69.27  19.63  0  0.0  2  1.02042  -69.3044  161.0  11  1.1  0.9  0.0  0  0  0  ;
2017  1  0.0  0.0  0  -17.18  2  1.03  -33.7017  500.0  10  1.1  0.9  0.0  0  0  0  ;
2018  1  0.0  0.0  0  0.0  2  1.0248  -32.7849  161.0  10  1.1  0.9  0.0  0  0  0  ;
2019  2  0.0  0.0  0  0.0  2  1.03  -33.7017  20.0  10  1.1  0.9  0.0  0  0  0  ;
2020  1  47.97  13.59  0  0.0  2  1.00043  -44.7529  161.0  11  1.1  0.9  0.0  0  0  0  ;
2021  1  0.0  0.0  0  0.0  2  1.01872  -56.4272  500.0  11  1.1  0.9  0.0  0  0  0  ;
2022  1  11.56  3.28  0  0.0  2  1.01557  -58.328  161.0  11  1.1  0.9  0.0  0  0  0  ;
2023  2  0.0  0.0  0  0.0  2  1.02  -54.8654  13.8  11  1.1  0.9  0.0  0  0  0  ;
2024  2  0.0  0.0  0  0.0  2  1.02  -54.2025  13.8  11  1.1  0.9  0.0  0  0  0  ;
2025  1  39.62  11.23  0  0.0  2  0.9986360000000001  -43.9861  161.0  11  1.1  0.9  0.0  0  0  0  ;
2026  1  18.57  5.26  0  0.0  2  1.01785  -32.0436  161.0  10  1.1  0.9  0.0  0  0  0  ;
2027  1  3.55  1.01  0  0.0  2  1.00835  -60.0775  161.0  11  1.1  0.9  0.0  0  0  0  ;
2028  1  14.24  4.03  0  0.0  2  1.00149  -47.0922  161.0  11  1.1  0.9  0.0  0  0  0  ;
2029  1  3.2  0.91  0  0.0  2  1.02213  -33.6311  161.0  10  1.1  0.9  0.0  0  0  0  ;
2030  1  47.15  13.36  0  0.0  2  0.9974430000000001  -63.6035  161.0  11  1.1  0.9  0.0  0  0  0  ;
2031  1  5.77  1.63  0  0.0  2  1.02762  -30.0507  161.0  10  1.1  0.9  0.0  0  0  0  ;
2032  1  3.35  0.95  0  0.0  2  1.01071  -58.8314  161.0  11  1.1  0.9  0.0  0  0  0  ;
2033  1  13.57  3.85  0  0.0  2  1.0011700000000001  -65.0675  161.0  11  1.1  0.9  0.0  0  0  0  ;
2034  1  5.34  1.51  0  0.0  2  1.0241  -68.7088  161.0  11  1.1  0.9  0.0  0  0  0  ;
2035  1  4.68  1.33  0  0.0  2  1.02346  -30.7776  161.0  10  1.1  0.9  0.0  0  0  0  ;
2036  1  41.59  11.78  0  0.0  2  1.00453  -44.3686  161.0  11  1.1  0.9  0.0  0  0  0  ;
2037  1  3.5  0.99  0  0.0  2  1.0265799999999998  -63.1036  161.0  11  1.1  0.9  0.0  0  0  0  ;
2038  1  2.6  0.74  0  0.0  2  1.01892  -63.8405  161.0  11  1.1  0.9  0.0  0  0  0  ;
2039  1  5.56  1.58  0  0.0  2  0.999397  -60.1949  161.0  11  1.1  0.9  0.0  0  0  0  ;
2040  1  15.9  4.51  0  0.0  2  1.01324  -58.9925  161.0  11  1.1  0.9  0.0  0  0  0  ;
2041  1  0.0  0.0  0  0.0  2  1.02091  -28.6419  161.0  10  1.1  0.9  0.0  0  0  0  ;
2042  2  0.0  0.0  0  0.0  2  1.01224  -26.0302  18.0  10  1.1  0.9  0.0  0  0  0  ;
2043  1  4.24  1.2  0  0.0  2  1.02242  -68.9815  161.0  11  1.1  0.9  0.0  0  0  0  ;
2044  1  27.4  7.76  0  0.0  2  1.02315  -64.8321  161.0  11  1.1  0.9  0.0  0  0  0  ;
2045  1  22.61  6.4  0  0.0  2  1.00004  -45.2865  161.0  11  1.1  0.9  0.0  0  0  0  ;
2046  1  22.13  6.27  0  0.0  2  1.02626  -68.3621  161.0  11  1.1  0.9  0.0  0  0  0  ;
2047  1  14.96  4.24  0  0.0  2  1.02278  -64.2739  161.0  11  1.1  0.9  0.0  0  0  0  ;
2048  1  6.42  1.82  0  0.0  2  1.03121  -32.2466  161.0  10  1.1  0.9  0.0  0  0  0  ;
2049  1  11.57  3.28  0  0.0  2  1.02452  -40.9774  161.0  10  1.1  0.9  0.0  0  0  0  ;
2050  1  3.66  1.04  0  0.0  2  1.00214  -62.8326  161.0  11  1.1  0.9  0.0  0  0  0  ;
2051  1  17.85  5.06  0  0.0  2  0.997416  -53.8317  161.0  11  1.1  0.9  0.0  0  0  0  ;
2052  1  24.84  7.04  0  0.0  2  1.01285  -32.9355  161.0  10  1.1  0.9  0.0  0  0  0  ;
2053  1  29.13  8.25  0  0.0  2  0.9978870000000001  -58.8739  161.0  11  1.1  0.9  0.0  0  0  0  ;
2054  1  0.0  0.0  0  0.0  2  1.0021  -43.019  500.0  11  1.1  0.9  0.0  0  0  0  ;
2055  1  49.62  14.06  0  0.0  2  1.0021200000000001  -43.8374  161.0  11  1.1  0.9  0.0  0  0  0  ;
2056  2  0.0  0.0  0  0.0  2  1.0021  -43.019  18.0  11  1.1  0.9  0.0  0  0  0  ;
2057  2  0.0  0.0  0  0.0  2  0.99  -38.5807  18.0  11  1.1  0.9  0.0  0  0  0  ;
2058  1  0.0  0.0  0  0.0  2  1.02098  -28.1995  161.0  10  1.1  0.9  0.0  0  0  0  ;
2059  2  0.0  0.0  0  0.0  2  1.01088  -24.8041  13.8  10  1.1  0.9  0.0  0  0  0  ;
2060  1  3.8  1.08  0  0.0  2  1.0048700000000002  -61.5725  161.0  11  1.1  0.9  0.0  0  0  0  ;
2061  1  0.0  0.0  0  0.0  2  1.02539  -37.5061  161.0  10  1.1  0.9  0.0  0  0  0  ;
2062  2  0.0  0.0  0  0.0  2  1.02  -35.2095  18.0  10  1.1  0.9  0.0  0  0  0  ;
2063  1  65.62  18.59  0  67.92  2  1.03  -67.7692  161.0  11  1.1  0.9  0.0  0  0  0  ;
2064  1  10.05  2.85  0  0.0  2  1.00958  -59.9362  161.0  11  1.1  0.9  0.0  0  0  0  ;
2065  1  78.36  22.2  0  90.13  2  1.03  -65.0297  161.0  11  1.1  0.9  0.0  0  0  0  ;
2066  1  7.11  2.02  0  0.0  2  1.02193  -27.8431  161.0  10  1.1  0.9  0.0  0  0  0  ;
2067  1  53.97  15.29  0  0.0  2  0.996598  -43.8923  161.0  11  1.1  0.9  0.0  0  0  0  ;
2068  1  5.76  1.63  0  0.0  2  1.0018200000000002  -41.8037  161.0  11  1.1  0.9  0.0  0  0  0  ;
2069  1  21.92  6.21  0  87.65  2  1.03  -68.4425  161.0  11  1.1  0.9  0.0  0  0  0  ;
2070  1  0.0  0.0  0  0.0  2  1.00369  -41.3643  161.0  11  1.1  0.9  0.0  0  0  0  ;
2071  2  0.0  0.0  0  0.0  2  1.0  -37.6921  18.0  11  1.1  0.9  0.0  0  0  0  ;
2072  1  9.71  2.75  0  0.0  2  1.02499  -66.6315  161.0  11  1.1  0.9  0.0  0  0  0  ;
2073  1  0.0  0.0  0  0.0  2  1.02241  -25.3215  161.0  10  1.1  0.9  0.0  0  0  0  ;
2074  1  0.0  0.0  0  0.0  2  1.0119  -23.4345  115.0  10  1.1  0.9  0.0  0  0  0  ;
2075  1  0.0  0.0  0  0.0  2  1.0119  -23.4345  115.0  10  1.1  0.9  0.0  0  0  0  ;
2076  2  0.0  0.0  0  0.0  2  1.0276399999999999  -24.4269  24.0  10  1.1  0.9  0.0  0  0  0  ;
2077  1  0.0  0.0  0  0.0  2  1.02635  -60.7182  161.0  11  1.1  0.9  0.0  0  0  0  ;
2078  2  0.0  0.0  0  0.0  2  1.02  -57.4097  13.8  11  1.1  0.9  0.0  0  0  0  ;
2079  1  4.48  1.27  0  0.0  2  1.0314  -34.9863  161.0  10  1.1  0.9  0.0  0  0  0  ;
2080  1  16.93  4.8  0  0.0  2  1.0027700000000002  -57.1098  161.0  11  1.1  0.9  0.0  0  0  0  ;
2081  1  4.46  1.26  0  0.0  2  1.01291  -64.6264  161.0  11  1.1  0.9  0.0  0  0  0  ;
2082  1  59.03  16.73  0  0.0  2  1.0093299999999998  -44.7232  161.0  11  1.1  0.9  0.0  0  0  0  ;
2083  2  0.0  0.0  0  0.0  2  1.02  -43.148999999999994  20.0  11  1.1  0.9  0.0  0  0  0  ;
2084  2  0.0  0.0  0  0.0  2  1.0093299999999998  -44.7232  20.0  11  1.1  0.9  0.0  0  0  0  ;
2085  2  0.0  0.0  0  0.0  2  1.0093299999999998  -44.7232  20.0  11  1.1  0.9  0.0  0  0  0  ;
2086  1  2.19  0.62  0  0.0  2  1.00062  -59.0315  161.0  11  1.1  0.9  0.0  0  0  0  ;
2087  1  7.9  2.24  0  0.0  2  1.02436  -27.7781  161.0  10  1.1  0.9  0.0  0  0  0  ;
2088  1  0.0  0.0  0  0.0  2  1.00271  -41.4958  161.0  11  1.1  0.9  0.0  0  0  0  ;
2089  2  0.0  0.0  0  0.0  2  1.0  -37.8993  24.0  11  1.1  0.9  0.0  0  0  0  ;
2090  1  2.42  0.69  0  0.0  2  1.00915  -60.684  161.0  11  1.1  0.9  0.0  0  0  0  ;
2091  1  17.05  4.83  0  0.0  2  1.02547  -34.1974  161.0  10  1.1  0.9  0.0  0  0  0  ;
2092  1  24.11  6.83  0  0.0  2  1.02467  -66.0988  161.0  11  1.1  0.9  0.0  0  0  0  ;
2093  1  0.0  0.0  0  0.0  2  1.02282  -31.7744  161.0  10  1.1  0.9  0.0  0  0  0  ;
2094  2  0.0  0.0  0  0.0  2  1.02282  -31.7744  13.8  10  1.1  0.9  0.0  0  0  0  ;
2095  2  0.0  0.0  0  0.0  2  1.02282  -31.7744  13.8  10  1.1  0.9  0.0  0  0  0  ;
2096  1  0.0  0.0  0  -63.14  2  1.03  -29.0256  500.0  10  1.1  0.9  0.0  0  0  0  ;
2097  1  0.0  0.0  0  0.0  2  1.02852  -28.3891  230.0  10  1.1  0.9  0.0  0  0  0  ;
2098  1  0.0  0.0  0  0.0  2  1.03246  -31.2603  161.0  10  1.1  0.9  0.0  0  0  0  ;
2099  2  0.0  0.0  0  0.0  2  1.0295299999999998  -28.8845  18.0  10  1.1  0.9  0.0  0  0  0  ;
2100  2  0.0  0.0  0  0.0  2  1.0208  -26.4196  18.0  10  1.1  0.9  0.0  0  0  0  ;
2101  1  0.0  0.0  0  0.0  2  1.02049  -62.2159  500.0  11  1.1  0.9  0.0  0  0  0  ;
2102  1  0.0  0.0  0  0.0  2  1.02071  -63.6168  161.0  11  1.1  0.9  0.0  0  0  0  ;
2103  2  0.0  0.0  0  0.0  2  1.02049  -62.2159  20.0  11  1.1  0.9  0.0  0  0  0  ;
2104  2  0.0  0.0  0  0.0  2  1.02049  -62.2159  20.0  11  1.1  0.9  0.0  0  0  0  ;
2105  2  0.0  0.0  0  0.0  2  1.02049  -62.2159  20.0  11  1.1  0.9  0.0  0  0  0  ;
2106  1  14.4  4.08  0  0.0  2  1.00011  -65.6877  161.0  11  1.1  0.9  0.0  0  0  0  ;
2107  1  74.15  21.01  0  0.0  2  1.0155299999999998  -64.4635  161.0  11  1.1  0.9  0.0  0  0  0  ;
2108  1  2.14  0.61  0  0.0  2  1.00948  -43.368  161.0  10  1.1  0.9  0.0  0  0  0  ;
2109  1  33.81  9.58  0  0.0  2  1.0154  -46.256  161.0  11  1.1  0.9  0.0  0  0  0  ;
...
];

%% generator data
%	bus	Pg	Qg	Qmax	Qmin	Vg	mBase	status	Pmax	Pmin	Pc1	Pc2	Qc1min	Qc1max	Qc2min	Qc2max	ramp_agc	ramp_10	ramp_30	ramp_q	apf	mu_Pmax	mu_Pmin	mu_Qmax	mu_Qmin
mpc.gen = [
1004  158.25  -30.38  44.94  -30.38  1.01  253.2  1  211.0  63.3  0  0  0  0  0  0  0  0  0.0  0  211.0  0  0  0  0  ;
1006  25.73  -4.94  7.31  -4.94  1.0  41.16  1  34.3  10.29  0  0  0  0  0  0  0  0  0.0  0  34.3  0  0  0  0  ;
1009  61.87  -11.88  17.57  -11.88  1.0  99.0  1  82.5  24.75  0  0  0  0  0  0  0  0  0.0  0  82.5  0  0  0  0  ;
1011  9.99  0.0  0.0  0.0  1.0  12.0  1  10.0  3.0  0  0  0  0  0  0  0  0  0.0  0  10.0  0  0  0  0  ;
1021  149.63  -28.73  42.49  -28.73  1.0  239.4  1  199.5  59.85  0  0  0  0  0  0  0  0  0.0  0  199.5  0  0  0  0  ;
1023  135.0  -1.36  38.34  -25.92  1.01  216.0  1  180.0  54.0  0  0  0  0  0  0  0  0  0.0  0  180.0  0  0  0  0  ;
1026  93.15  -7.89  26.45  -17.88  1.0  149.04  1  124.2  37.26  0  0  0  0  0  0  0  0  0.0  0  124.2  0  0  0  0  ;
1033  208.5  -40.03  59.21  -40.03  1.0  333.6  1  278.0  83.4  0  0  0  0  0  0  0  0  0.0  0  278.0  0  0  0  0  ;
1035  67.5  -12.96  19.17  -12.96  1.0  108.0  1  90.0  27.0  0  0  0  0  0  0  0  0  0.0  0  90.0  0  0  0  0  ;
1039  110.63  -21.24  31.42  -21.24  1.0  177.0  1  147.5  44.25  0  0  0  0  0  0  0  0  0.0  0  147.5  0  0  0  0  ;
1042  0.0  0.0  25.96  -17.55  1.0  146.28  0  121.9  36.57  0  0  0  0  0  0  0  0  0.0  0  121.9  0  0  0  0  ;
1043  44.1  -4.93  12.52  -8.47  1.0  70.56  1  58.8  17.64  0  0  0  0  0  0  0  0  0.0  0  58.8  0  0  0  0  ;
1048  0.0  0.0  165.53  -36.1  1.0  390.24  0  325.2  97.56  0  0  0  0  0  0  0  0  132.06  0  325.2  0  0  0  0  ;
1049  0.0  0.0  165.53  -36.1  1.0  390.24  0  325.2  97.56  0  0  0  0  0  0  0  0  132.06  0  325.2  0  0  0  0  ;
1050  89.27  -9.92  45.5  -9.92  1.0  107.28  1  89.4  26.82  0  0  0  0  0  0  0  0  44.7  0  89.4  0  0  0  0  ;
1051  89.27  -7.94  45.5  -9.92  1.0  107.28  1  89.4  26.82  0  0  0  0  0  0  0  0  44.7  0  89.4  0  0  0  0  ;
1052  89.27  -9.92  45.5  -9.92  1.0  107.28  1  89.4  26.82  0  0  0  0  0  0  0  0  44.7  0  89.4  0  0  0  0  ;
1053  0.0  0.0  91.01  -19.85  1.0  214.56  0  178.8  53.64  0  0  0  0  0  0  0  0  89.4  0  178.8  0  0  0  0  ;
1057  0.0  0.0  25.56  -17.28  1.0  144.0  0  120.0  36.0  0  0  0  0  0  0  0  0  0.0  0  120.0  0  0  0  0  ;
1059  0.0  0.0  2.85  -0.62  1.04  6.72  0  5.6  1.68  0  0  0  0  0  0  0  0  2.8  0  5.6  0  0  0  0  ;
1060  0.0  0.0  1.02  -0.22  1.04  2.4  0  2.0  0.6  0  0  0  0  0  0  0  0  1.0  0  2.0  0  0  0  0  ;
1062  0.0  0.0  0.0  0.0  1.01  1.8  0  1.5  0.45  0  0  0  0  0  0  0  0  0.0  0  1.5  0  0  0  0  ;
1063  0.0  0.0  0.0  0.0  1.01  276.0  0  230.0  69.0  0  0  0  0  0  0  0  0  0.0  0  230.0  0  0  0  0  ;
1066  106.88  -4.79  30.35  -20.52  1.0  171.0  1  142.5  42.75  0  0  0  0  0  0  0  0  0.0  0  142.5  0  0  0  0  ;
1070  120.38  16.42  34.19  -23.11  1.04  192.6  1  160.5  48.15  0  0  0  0  0  0  0  0  0.0  0  160.5  0  0  0  0  ;
1072  191.85  10.71  97.8  -21.33  1.01  230.56  1  192.13  57.64  0  0  0  0  0  0  0  0  96.06  0  192.13  0  0  0  0  ;
1073  191.85  23.64  97.8  -21.33  1.01  230.56  1  192.13  57.64  0  0  0  0  0  0  0  0  96.06  0  192.13  0  0  0  0  ;
1074  191.85  18.7  97.8  -21.33  1.01  230.56  1  192.13  57.64  0  0  0  0  0  0  0  0  96.06  0  192.13  0  0  0  0  ;
1075  191.85  17.01  97.8  -21.33  1.01  230.56  1  192.13  57.64  0  0  0  0  0  0  0  0  96.06  0  192.13  0  0  0  0  ;
1076  0.0  0.0  97.8  -21.33  1.01  230.56  0  192.13  57.64  0  0  0  0  0  0  0  0  96.06  0  192.13  0  0  0  0  ;
1077  0.0  0.0  97.8  -21.33  1.01  230.56  0  192.13  57.64  0  0  0  0  0  0  0  0  96.06  0  192.13  0  0  0  0  ;
1078  95.36  9.08  48.61  -10.6  1.01  114.6  1  95.5  28.65  0  0  0  0  0  0  0  0  47.75  0  95.5  0  0  0  0  ;
1079  95.36  -10.6  48.61  -10.6  1.01  114.6  1  95.5  28.65  0  0  0  0  0  0  0  0  47.75  0  95.5  0  0  0  0  ;
1080  95.36  6.37  48.61  -10.6  1.01  114.6  1  95.5  28.65  0  0  0  0  0  0  0  0  47.75  0  95.5  0  0  0  0  ;
1081  0.0  0.0  145.83  -31.8  1.01  343.8  0  286.5  85.95  0  0  0  0  0  0  0  0  124.66  0  286.5  0  0  0  0  ;
1082  112.5  -21.6  31.95  -21.6  1.0  180.0  1  150.0  45.0  0  0  0  0  0  0  0  0  0.0  0  150.0  0  0  0  0  ;
1084  86.62  24.6  24.6  -16.63  1.04  138.6  1  115.5  34.65  0  0  0  0  0  0  0  0  0.0  0  115.5  0  0  0  0  ;
1088  56.25  -8.13  15.97  -10.8  1.0  90.0  1  75.0  22.5  0  0  0  0  0  0  0  0  0.0  0  75.0  0  0  0  0  ;
1090  114.37  9.6  32.48  -21.96  1.02  183.0  1  152.5  45.75  0  0  0  0  0  0  0  0  0.0  0  152.5  0  0  0  0  ;
1090  27.0  7.67  7.67  -5.18  1.02  43.2  1  36.0  10.8  0  0  0  0  0  0  0  0  0.0  0  36.0  0  0  0  0  ;
2004  0.0  0.0  199.43  -43.49  1.02  470.16  0  391.8  117.54  0  0  0  0  0  0  0  0  139.54  0  391.8  0  0  0  0  ;
2005  0.0  0.0  199.43  -43.49  1.02  470.16  0  391.8  117.54  0  0  0  0  0  0  0  0  139.54  0  391.8  0  0  0  0  ;
2006  0.0  0.0  199.43  -43.49  1.02  470.16  0  391.8  117.54  0  0  0  0  0  0  0  0  139.54  0  391.8  0  0  0  0  ;
2013  150.45  -28.89  42.73  -28.89  1.0  240.72  1  200.6  60.18  0  0  0  0  0  0  0  0  0.0  0  200.6  0  0  0  0  ;
2019  0.0  0.0  46.43  -31.39  1.04  261.6  0  218.0  65.4  0  0  0  0  0  0  0  0  0.0  0  218.0  0  0  0  0  ;
2023  83.21  3.63  42.42  -9.25  1.02  100.0  1  83.33  25.0  0  0  0  0  0  0  0  0  41.66  0  83.33  0  0  0  0  ;
2024  166.42  6.12  84.83  -18.5  1.02  200.0  1  166.67  50.0  0  0  0  0  0  0  0  0  83.33  0  166.67  0  0  0  0  ;
2042  59.7  -11.46  16.95  -11.46  1.01  95.52  1  79.6  23.88  0  0  0  0  0  0  0  0  0.0  0  79.6  0  0  0  0  ;
2056  0.0  0.0  2.8  -0.73  0.99  7.2  0  6.0  1.8  0  0  0  0  0  0  0  0  2.4  0  6.0  0  0  0  0  ;
2057  579.67  -79.15  335.52  -87.84  0.99  864.0  1  720.0  216.0  0  0  0  0  0  0  0  0  210.0  0  720.0  0  0  0  0  ;
2059  60.0  -11.52  17.04  -11.52  1.0  96.0  1  80.0  24.0  0  0  0  0  0  0  0  0  0.0  0  80.0  0  0  0  0  ;
2062  101.55  -15.32  28.84  -19.5  1.02  162.48  1  135.4  40.62  0  0  0  0  0  0  0  0  0.0  0  135.4  0  0  0  0  ;
2071  112.5  -5.4  31.95  -21.6  1.0  180.0  1  150.0  45.0  0  0  0  0  0  0  0  0  0.0  0  150.0  0  0  0  0  ;
2076  22.5  6.39  6.39  -4.32  1.04  36.0  1  30.0  9.0  0  0  0  0  0  0  0  0  0.0  0  30.0  0  0  0  0  ;
2078  84.38  -8.99  23.96  -16.2  1.02  135.0  1  112.5  33.75  0  0  0  0  0  0  0  0  0.0  0  112.5  0  0  0  0  ;
2083  19.97  7.32  10.18  -2.22  1.02  24.0  1  20.0  6.0  0  0  0  0  0  0  0  0  10.0  0  20.0  0  0  0  0  ;
2084  0.0  0.0  10.18  -2.22  1.02  24.0  0  20.0  6.0  0  0  0  0  0  0  0  0  10.0  0  20.0  0  0  0  0  ;
2085  0.0  0.0  20.36  -4.44  1.02  48.0  0  40.0  12.0  0  0  0  0  0  0  0  0  20.0  0  40.0  0  0  0  0  ;
2089  50.7  -1.65  14.4  -9.73  1.0  81.12  1  67.6  20.28  0  0  0  0  0  0  0  0  0.0  0  67.6  0  0  0  0  ;
2094  0.0  0.0  2.13  -1.44  1.0  12.0  0  10.0  3.0  0  0  0  0  0  0  0  0  0.0  0  10.0  0  0  0  0  ;
2095  0.0  0.0  16.93  -11.45  1.0  95.4  0  79.5  23.85  0  0  0  0  0  0  0  0  0.0  0  79.5  0  0  0  0  ;
2099  7.5  -1.44  2.13  -1.44  1.02  12.0  1  10.0  3.0  0  0  0  0  0  0  0  0  0.0  0  10.0  0  0  0  0  ;
2100  112.5  -21.6  31.95  -21.6  1.02  180.0  1  150.0  45.0  0  0  0  0  0  0  0  0  0.0  0  150.0  0  0  0  0  ;
2103  0.0  0.0  136.28  -29.72  1.0  321.28  0  267.73  80.32  0  0  0  0  0  0  0  0  120.26  0  267.73  0  0  0  0  ;
2104  0.0  0.0  136.28  -29.72  1.0  321.28  0  267.73  80.32  0  0  0  0  0  0  0  0  120.26  0  267.73  0  0  0  0  ;
2105  0.0  0.0  136.28  -29.72  1.0  321.28  0  267.73  80.32  0  0  0  0  0  0  0  0  120.26  0  267.73  0  0  0  0  ;
2115  184.45  -20.5  94.02  -20.5  1.0  221.66  1  184.72  55.41  0  0  0  0  0  0  0  0  92.36  0  184.72  0  0  0  0  ;
2116  184.45  -20.5  94.02  -20.5  1.0  221.66  1  184.72  55.41  0  0  0  0  0  0  0  0  92.36  0  184.72  0  0  0  0  ;
2117  184.45  -20.5  94.02  -20.5  1.0  221.66  1  184.72  55.41  0  0  0  0  0  0  0  0  92.36  0  184.72  0  0  0  0  ;
2118  184.45  -20.5  94.02  -20.5  1.0  221.66  1  184.72  55.41  0  0  0  0  0  0  0  0  92.36  0  184.72  0  0  0  0  ;
2119  184.45  -20.5  94.02  -20.5  1.0  221.66  1  184.72  55.41  0  0  0  0  0  0  0  0  92.36  0  184.72  0  0  0  0  ;
2120  184.45  -13.02  94.02  -20.5  1.01  221.66  1  184.72  55.41  0  0  0  0  0  0  0  0  92.36  0  184.72  0  0  0  0  ;
2123  136.28  -26.16  38.7  -26.16  1.0  218.04  1  181.7  54.51  0  0  0  0  0  0  0  0  0.0  0  181.7  0  0  0  0  ;
2127  216.45  61.47  61.47  -41.56  1.04  346.32  1  288.6  86.58  0  0  0  0  0  0  0  0  0.0  0  288.6  0  0  0  0  ;
3004  28.13  -5.4  7.99  -5.4  1.0  45.0  1  37.5  11.25  0  0  0  0  0  0  0  0  0.0  0  37.5  0  0  0  0  ;
3017  127.13  -3.11  36.1  -24.41  1.01  203.4  1  169.5  50.85  0  0  0  0  0  0  0  0  0.0  0  169.5  0  0  0  0  ;
3020  112.5  -0.04  31.95  -21.6  1.03  180.0  1  150.0  45.0  0  0  0  0  0  0  0  0  0.0  0  150.0  0  0  0  0  ;
3028  150.0  30.9  42.6  -28.8  1.04  240.0  1  200.0  60.0  0  0  0  0  0  0  0  0  0.0  0  200.0  0  0  0  0  ;
3034  97.87  16.69  27.8  -18.79  1.03  156.6  1  130.5  39.15  0  0  0  0  0  0  0  0  0.0  0  130.5  0  0  0  0  ;
3039  156.75  32.46  44.52  -30.1  1.04  250.8  1  209.0  62.7  0  0  0  0  0  0  0  0  0.0  0  209.0  0  0  0  0  ;
3043  0.0  0.0  0.66  -0.14  1.04  1.56  0  1.3  0.39  0  0  0  0  0  0  0  0  0.65  0  1.3  0  0  0  0  ;
3044  0.0  0.0  45.5  -9.92  1.04  107.28  0  89.4  26.82  0  0  0  0  0  0  0  0  44.7  0  89.4  0  0  0  0  ;
3045  0.0  0.0  227.52  -49.62  1.04  536.4  0  447.0  134.1  0  0  0  0  0  0  0  0  140.69  0  447.0  0  0  0  0  ;
3048  180.75  51.33  51.33  -34.7  1.04  289.2  1  241.0  72.3  0  0  0  0  0  0  0  0  0.0  0  241.0  0  0  0  0  ;
3055  183.88  29.03  52.22  -35.3  1.04  294.2  1  245.17  73.55  0  0  0  0  0  0  0  0  0.0  0  245.17  0  0  0  0  ;
3056  183.88  20.55  52.22  -35.3  1.04  294.2  1  245.17  73.55  0  0  0  0  0  0  0  0  0.0  0  245.17  0  0  0  0  ;
3057  183.88  18.83  52.22  -35.3  1.04  294.2  1  245.17  73.55  0  0  0  0  0  0  0  0  0.0  0  245.17  0  0  0  0  ;
3060  124.22  10.79  35.28  -23.85  1.04  198.75  1  165.63  49.69  0  0  0  0  0  0  0  0  0.0  0  165.63  0  0  0  0  ;
3061  124.22  10.59  35.28  -23.85  1.04  198.75  1  165.63  49.69  0  0  0  0  0  0  0  0  0.0  0  165.63  0  0  0  0  ;
3062  124.22  12.87  35.28  -23.85  1.04  198.75  1  165.63  49.69  0  0  0  0  0  0  0  0  0.0  0  165.63  0  0  0  0  ;
3063  124.22  10.23  35.28  -23.85  1.04  198.75  1  165.63  49.69  0  0  0  0  0  0  0  0  0.0  0  165.63  0  0  0  0  ;
3065  60.37  -11.59  17.15  -11.59  1.0  96.6  1  80.5  24.15  0  0  0  0  0  0  0  0  0.0  0  80.5  0  0  0  0  ;
3068  112.5  22.42  31.95  -21.6  1.04  180.0  1  150.0  45.0  0  0  0  0  0  0  0  0  0.0  0  150.0  0  0  0  0  ;
3071  127.65  -24.51  36.25  -24.51  1.0  204.24  1  170.2  51.06  0  0  0  0  0  0  0  0  0.0  0  170.2  0  0  0  0  ;
3074  74.85  -7.15  21.26  -14.37  1.0  119.76  1  99.8  29.94  0  0  0  0  0  0  0  0  0.0  0  99.8  0  0  0  0  ;
3081  186.75  25.43  53.04  -35.86  1.04  298.8  1  249.0  74.7  0  0  0  0  0  0  0  0  0.0  0  249.0  0  0  0  0  ;
3084  174.37  -14.09  49.52  -33.48  1.0  279.0  1  232.5  69.75  0  0  0  0  0  0  0  0  0.0  0  232.5  0  0  0  0  ;
3086  56.25  -2.4  15.97  -10.8  1.0  90.0  1  75.0  22.5  0  0  0  0  0  0  0  0  0.0  0  75.0  0  0  0  0  ;
3087  0.0  0.0  15.97  -10.8  1.0  90.0  0  75.0  22.5  0  0  0  0  0  0  0  0  0.0  0  75.0  0  0  0  0  ;
3092  150.0  18.47  42.6  -28.8  1.04  240.0  1  200.0  60.0  0  0  0  0  0  0  0  0  0.0  0  200.0  0  0  0  0  ;
3095  90.45  17.28  25.69  -17.37  1.04  144.72  1  120.6  36.18  0  0  0  0  0  0  0  0  0.0  0  120.6  0  0  0  0  ;
3098  120.0  16.96  34.08  -23.04  1.04  192.0  1  160.0  48.0  0  0  0  0  0  0  0  0  0.0  0  160.0  0  0  0  0  ;
3105  44.5  -0.74  17.07  -0.74  1.0  18.0  1  44.5  0.0  0  0  0  0  0  0  0  0  0.0  0  15.0  0  0  0  0  ;
3106  53.02  -2.69  62.48  -2.69  1.0  65.88  1  18.5  0.0  0  0  0  0  0  0  0  0  0.0  0  54.9  0  0  0  0  ;
3110  63.0  11.52  17.89  -12.1  1.04  100.8  1  84.0  25.2  0  0  0  0  0  0  0  0  0.0  0  84.0  0  0  0  0  ;
3112  56.1  -4.0  15.93  -10.77  1.0  89.76  1  74.8  22.44  0  0  0  0  0  0  0  0  0.0  0  74.8  0  0  0  0  ;
3113  56.1  -3.31  15.93  -10.77  1.0  89.76  1  74.8  22.44  0  0  0  0  0  0  0  0  0.0  0  74.8  0  0  0  0  ;
3117  47.25  -5.59  13.42  -9.07  1.0  75.6  1  63.0  18.9  0  0  0  0  0  0  0  0  0.0  0  63.0  0  0  0  0  ;
3118  90.0  -9.26  25.56  -17.28  1.0  144.0  1  120.0  36.0  0  0  0  0  0  0  0  0  0.0  0  120.0  0  0  0  0  ;
3120  29.7  0.0  0.0  0.0  1.0  47.52  1  39.6  11.88  0  0  0  0  0  0  0  0  0.0  0  39.6  0  0  0  0  ;
3122  147.75  -14.42  41.96  -28.37  1.0  236.4  1  197.0  59.1  0  0  0  0  0  0  0  0  0.0  0  197.0  0  0  0  0  ;
3127  101.25  -19.44  28.76  -19.44  1.0  162.0  1  135.0  40.5  0  0  0  0  0  0  0  0  0.0  0  135.0  0  0  0  0  ;
3129  94.88  -18.22  26.94  -18.22  1.0  151.8  1  126.5  37.95  0  0  0  0  0  0  0  0  0.0  0  126.5  0  0  0  0  ;
3131  85.5  6.75  24.28  -16.42  1.02  136.8  1  114.0  34.2  0  0  0  0  0  0  0  0  0.0  0  114.0  0  0  0  0  ;
3133  0.0  0.0  26.11  -5.69  1.04  61.56  0  51.3  15.39  0  0  0  0  0  0  0  0  25.65  0  51.3  0  0  0  0  ;
3133  0.0  0.0  26.11  -5.69  1.04  61.56  0  51.3  15.39  0  0  0  0  0  0  0  0  25.65  0  51.3  0  0  0  0  ;
3133  0.0  0.0  26.11  -5.69  1.04  61.56  0  51.3  15.39  0  0  0  0  0  0  0  0  25.65  0  51.3  0  0  0  0  ;
3137  75.9  21.56  21.56  -14.57  1.03  121.44  1  101.2  30.36  0  0  0  0  0  0  0  0  0.0  0  101.2  0  0  0  0  ;
3141  68.62  -13.18  19.49  -13.18  1.0  109.8  1  91.5  27.45  0  0  0  0  0  0  0  0  0.0  0  91.5  0  0  0  0  ;
4010  151.2  9.12  42.94  -29.03  1.03  241.92  1  201.6  60.48  0  0  0  0  0  0  0  0  0.0  0  201.6  0  0  0  0  ;
4026  409.4  42.35  191.06  -50.02  1.03  492.0  1  410.0  123.0  0  0  0  0  0  0  0  0  146.06  0  410.0  0  0  0  0  ;
4030  465.83  -41.42  290.04  -75.93  1.01  746.88  1  622.4  186.72  0  0  0  0  0  0  0  0  194.19  0  622.4  0  0  0  0  ;
4045  93.4  5.86  35.86  -1.54  1.02  37.8  1  36.0  0.0  0  0  0  0  0  0  0  0  0.0  0  31.5  0  0  0  0  ;
4046  28.5  0.91  10.94  -0.47  1.02  11.52  1  9.6  0.0  0  0  0  0  0  0  0  0  0.0  0  9.6  0  0  0  0  ;
4047  27.48  0.6  75.1  -3.23  1.02  79.2  1  195.7  0.0  0  0  0  0  0  0  0  0  97.85  0  66.0  0  0  0  0  ;
4050  150.0  -28.8  42.6  -28.8  1.0  240.0  1  200.0  60.0  0  0  0  0  0  0  0  0  0.0  0  200.0  0  0  0  0  ;
4052  44.13  22.5  22.5  -4.91  1.04  53.04  1  44.2  13.26  0  0  0  0  0  0  0  0  22.1  0  44.2  0  0  0  0  ;
4058  100.82  14.7  73.3  -15.98  1.03  172.8  1  144.0  43.2  0  0  0  0  0  0  0  0  72.0  0  144.0  0  0  0  0  ;
4059  85.3  15.12  73.3  -15.98  1.03  172.8  1  144.0  43.2  0  0  0  0  0  0  0  0  72.0  0  144.0  0  0  0  0  ;
4060  125.62  12.99  73.3  -15.98  1.03  172.8  1  144.0  43.2  0  0  0  0  0  0  0  0  72.0  0  144.0  0  0  0  0  ;
4061  150.33  16.74  87.72  -19.13  1.03  206.8  1  172.33  51.7  0  0  0  0  0  0  0  0  86.17  0  172.33  0  0  0  0  ;
4062  172.08  14.76  87.72  -19.13  1.03  206.8  1  172.33  51.7  0  0  0  0  0  0  0  0  86.17  0  172.33  0  0  0  0  ;
4063  126.2  16.97  87.72  -19.13  1.03  206.8  1  172.33  51.7  0  0  0  0  0  0  0  0  86.17  0  172.33  0  0  0  0  ;
4065  46.93  9.84  23.92  -5.22  1.02  56.4  1  47.0  14.1  0  0  0  0  0  0  0  0  23.5  0  47.0  0  0  0  0  ;
4075  0.0  0.0  89.75  -19.57  1.03  211.6  0  176.33  52.9  0  0  0  0  0  0  0  0  88.17  0  176.33  0  0  0  0  ;
4076  176.07  22.29  89.75  -19.57  1.03  211.6  1  176.33  52.9  0  0  0  0  0  0  0  0  88.17  0  176.33  0  0  0  0  ;
4077  98.55  16.9  89.75  -19.57  1.03  211.6  1  176.33  52.9  0  0  0  0  0  0  0  0  88.17  0  176.33  0  0  0  0  ;
4082  243.04  26.69  123.89  -27.02  1.04  292.08  1  243.4  73.02  0  0  0  0  0  0  0  0  113.78  0  243.4  0  0  0  0  ;
4083  243.04  27.21  123.89  -27.02  1.04  292.08  1  243.4  73.02  0  0  0  0  0  0  0  0  113.78  0  243.4  0  0  0  0  ;
4084  243.04  40.3  123.89  -27.02  1.04  292.08  1  243.4  73.02  0  0  0  0  0  0  0  0  113.78  0  243.4  0  0  0  0  ;
4085  171.03  41.93  179.17  -39.07  1.04  422.4  1  352.0  105.6  0  0  0  0  0  0  0  0  135.87  0  352.0  0  0  0  0  ;
4090  0.0  0.0  0.65  -0.17  1.01  1.68  0  1.4  0.42  0  0  0  0  0  0  0  0  0.56  0  1.4  0  0  0  0  ;
4091  23.47  -1.01  10.95  -2.87  1.01  28.2  1  23.5  7.05  0  0  0  0  0  0  0  0  9.4  0  23.5  0  0  0  0  ;
4092  0.0  0.0  3.54  -0.93  1.01  9.12  0  7.6  2.28  0  0  0  0  0  0  0  0  3.04  0  7.6  0  0  0  0  ;
4093  27.96  -1.55  13.05  -3.42  1.01  33.6  1  28.0  8.4  0  0  0  0  0  0  0  0  11.2  0  28.0  0  0  0  0  ;
4094  27.96  -2.66  13.05  -3.42  1.01  33.6  1  28.0  8.4  0  0  0  0  0  0  0  0  11.2  0  28.0  0  0  0  0  ;
4095  27.96  -1.57  13.05  -3.42  1.01  33.6  1  28.0  8.4  0  0  0  0  0  0  0  0  11.2  0  28.0  0  0  0  0  ;
4096  0.0  0.0  13.05  -3.42  1.01  33.6  0  28.0  8.4  0  0  0  0  0  0  0  0  11.2  0  28.0  0  0  0  0  ;
4097  27.96  -1.41  13.05  -3.42  1.01  33.6  1  28.0  8.4  0  0  0  0  0  0  0  0  11.2  0  28.0  0  0  0  0  ;
4098  0.0  0.0  13.05  -3.42  1.01  33.6  0  28.0  8.4  0  0  0  0  0  0  0  0  11.2  0  28.0  0  0  0  0  ;
4105  135.0  13.1  38.34  -25.92  1.01  216.0  1  180.0  54.0  0  0  0  0  0  0  0  0  0.0  0  180.0  0  0  0  0  ;
4115  131.61  25.73  67.09  -14.63  1.04  158.16  1  131.8  39.54  0  0  0  0  0  0  0  0  65.9  0  131.8  0  0  0  0  ;
4116  124.88  23.21  67.09  -14.63  1.04  158.16  1  131.8  39.54  0  0  0  0  0  0  0  0  65.9  0  131.8  0  0  0  0  ;
4133  0.0  0.0  17.1  -3.73  1.0  40.32  0  33.6  10.08  0  0  0  0  0  0  0  0  16.8  0  33.6  0  0  0  0  ;
4134  10.49  -3.73  17.1  -3.73  1.0  40.32  1  33.6  10.08  0  0  0  0  0  0  0  0  16.8  0  33.6  0  0  0  0  ;
4135  10.49  -3.73  17.1  -3.73  1.0  40.32  1  33.6  10.08  0  0  0  0  0  0  0  0  16.8  0  33.6  0  0  0  0  ;
4136  10.49  -3.73  17.1  -3.73  1.0  40.32  1  33.6  10.08  0  0  0  0  0  0  0  0  16.8  0  33.6  0  0  0  0  ;
4137  0.0  0.0  34.2  -7.46  1.0  80.64  0  67.2  20.16  0  0  0  0  0  0  0  0  33.6  0  67.2  0  0  0  0  ;
4138  0.0  0.0  33.59  -7.33  1.0  79.2  0  66.0  19.8  0  0  0  0  0  0  0  0  33.0  0  66.0  0  0  0  0  ;
4142  141.0  26.2  40.04  -27.07  1.04  225.6  1  188.0  56.4  0  0  0  0  0  0  0  0  0.0  0  188.0  0  0  0  0  ;
4153  212.4  60.32  60.32  -40.78  1.04  339.84  1  283.2  84.96  0  0  0  0  0  0  0  0  0.0  0  283.2  0  0  0  0  ;
4160  197.48  55.67  100.66  -21.95  1.03  237.32  1  197.77  59.33  0  0  0  0  0  0  0  0  98.89  0  197.77  0  0  0  0  ;
4161  89.46  23.49  100.66  -21.95  1.03  237.32  1  197.77  59.33  0  0  0  0  0  0  0  0  98.89  0  197.77  0  0  0  0  ;
4162  114.14  22.39  100.66  -21.95  1.03  237.32  1  197.77  59.33  0  0  0  0  0  0  0  0  98.89  0  197.77  0  0  0  0  ;
4163  0.0  0.0  4.58  -1.0  1.03  10.8  0  9.0  2.7  0  0  0  0  0  0  0  0  4.5  0  9.0  0  0  0  0  ;
4166  150.75  -28.94  42.81  -28.94  1.0  241.2  1  201.0  60.3  0  0  0  0  0  0  0  0  0.0  0  201.0  0  0  0  0  ;
4177  112.5  -0.15  31.95  -21.6  1.04  180.0  1  150.0  45.0  0  0  0  0  0  0  0  0  0.0  0  150.0  0  0  0  0  ;
4181  150.07  42.62  42.62  -28.81  1.04  240.12  1  200.1  60.03  0  0  0  0  0  0  0  0  0.0  0  200.1  0  0  0  0  ;
4183  152.25  43.24  43.24  -29.23  1.03  243.6  1  203.0  60.9  0  0  0  0  0  0  0  0  0.0  0  203.0  0  0  0  0  ;
4192  74.89  12.56  38.17  -8.33  1.02  90.0  1  75.0  22.5  0  0  0  0  0  0  0  0  37.5  0  75.0  0  0  0  0  ;
4192  183.5  12.56  93.54  -20.4  1.02  220.52  1  183.77  55.13  0  0  0  0  0  0  0  0  91.89  0  183.77  0  0  0  0  ;
4192  0.0  0.0  12.22  -2.66  1.02  28.8  0  24.0  7.2  0  0  0  0  0  0  0  0  12.0  0  24.0  0  0  0  0  ;
4192  60.91  12.56  31.05  -6.77  1.02  73.2  1  61.0  18.3  0  0  0  0  0  0  0  0  30.5  0  61.0  0  0  0  0  ;
4192  10.38  5.29  5.29  -1.15  1.02  12.48  1  10.4  3.12  0  0  0  0  0  0  0  0  5.2  0  10.4  0  0  0  0  ;
4192  138.74  12.56  135.9  -29.64  1.02  320.4  1  267.0  80.1  0  0  0  0  0  0  0  0  120.08  0  267.0  0  0  0  0  ;
4192  158.16  12.56  135.9  -29.64  1.02  320.4  1  267.0  80.1  0  0  0  0  0  0  0  0  120.08  0  267.0  0  0  0  0  ;
4192  158.16  12.56  135.9  -29.64  1.02  320.4  1  267.0  80.1  0  0  0  0  0  0  0  0  120.08  0  267.0  0  0  0  0  ;
4192  183.5  12.56  93.54  -20.4  1.02  220.52  1  183.77  55.13  0  0  0  0  0  0  0  0  91.89  0  183.77  0  0  0  0  ;
4192  183.5  12.56  93.54  -20.4  1.02  220.52  1  183.77  55.13  0  0  0  0  0  0  0  0  91.89  0  183.77  0  0  0  0  ;
4194  151.2  42.94  42.94  -29.03  1.02  241.92  1  201.6  60.48  0  0  0  0  0  0  0  0  0.0  0  201.6  0  0  0  0  ;
4195  69.0  -13.25  19.6  -13.25  1.0  110.4  1  92.0  27.6  0  0  0  0  0  0  0  0  0.0  0  92.0  0  0  0  0  ;
5020  90.0  -17.28  25.56  -17.28  1.0  144.0  1  120.0  36.0  0  0  0  0  0  0  0  0  0.0  0  120.0  0  0  0  0  ;
5023  0.0  0.0  2.44  -0.53  1.04  5.76  0  4.8  1.44  0  0  0  0  0  0  0  0  2.4  0  4.8  0  0  0  0  ;
5035  0.0  0.0  2.14  -0.47  1.02  5.04  0  4.2  1.26  0  0  0  0  0  0  0  0  2.1  0  4.2  0  0  0  0  ;
5036  0.0  0.0  3.26  -0.71  1.02  7.68  0  6.4  1.92  0  0  0  0  0  0  0  0  3.2  0  6.4  0  0  0  0  ;
5037  96.35  16.88  157.01  -34.24  1.02  370.16  1  308.47  92.54  0  0  0  0  0  0  0  0  129.14  0  308.47  0  0  0  0  ;
5038  96.35  16.55  157.01  -34.24  1.02  370.16  1  308.47  92.54  0  0  0  0  0  0  0  0  129.14  0  308.47  0  0  0  0  ;
5039  96.35  37.47  157.01  -34.24  1.02  370.16  1  308.47  92.54  0  0  0  0  0  0  0  0  129.14  0  308.47  0  0  0  0  ;
5040  96.35  11.89  157.01  -34.24  1.02  370.16  1  308.47  92.54  0  0  0  0  0  0  0  0  129.14  0  308.47  0  0  0  0  ;
5041  96.35  17.4  157.01  -34.24  1.02  370.16  1  308.47  92.54  0  0  0  0  0  0  0  0  129.14  0  308.47  0  0  0  0  ;
5042  96.35  15.52  157.01  -34.24  1.02  370.16  1  308.47  92.54  0  0  0  0  0  0  0  0  129.14  0  308.47  0  0  0  0  ;
5051  84.58  35.75  43.11  -9.4  1.02  101.64  1  84.7  25.41  0  0  0  0  0  0  0  0  42.35  0  84.7  0  0  0  0  ;
5057  0.0  0.0  161.53  -35.23  1.0  380.82  0  317.35  95.2  0  0  0  0  0  0  0  0  130.74  0  317.35  0  0  0  0  ;
5058  253.85  -35.23  161.53  -35.23  1.0  380.82  1  317.35  95.2  0  0  0  0  0  0  0  0  130.74  0  317.35  0  0  0  0  ;
5065  10.58  5.4  5.4  -1.18  1.03  12.72  1  10.6  3.18  0  0  0  0  0  0  0  0  5.3  0  10.6  0  0  0  0  ;
5066  0.0  0.0  0.92  -0.2  1.03  2.16  0  1.8  0.54  0  0  0  0  0  0  0  0  0.9  0  1.8  0  0  0  0  ;
5067  437.62  106.81  223.08  -48.65  1.03  525.92  1  438.27  131.48  0  0  0  0  0  0  0  0  140.82  0  438.27  0  0  0  0  ;
5068  437.62  100.32  223.08  -48.65  1.03  525.92  1  438.27  131.48  0  0  0  0  0  0  0  0  140.82  0  438.27  0  0  0  0  ;
5069  437.62  94.11  223.08  -48.65  1.03  525.92  1  438.27  131.48  0  0  0  0  0  0  0  0  140.82  0  438.27  0  0  0  0  ;
5089  0.0  0.0  47.57  -2.05  1.01  50.16  0  123.9  0.0  0  0  0  0  0  0  0  0  61.95  0  41.8  0  0  0  0  ;
...
];

%% branch data
%	fbus	tbus	r	x	b	rateA	rateB	rateC	ratio	angle	status	angmin	angmax	Pf	Qf	Pt	Qt	mu_Sf	mu_St	mu_angmin	mu_angmax
mpc.branch = [
1001  1064  0.00524  0.0358  0.00609  221.0  0  0  0.0  0.0  1  0  0  67.57  4.5  -67.33  -3.46  0  0  0  0  
1001  1064  0.00524  0.0358  0.00609  221.0  0  0  0.0  0.0  1  0  0  67.57  4.5  -67.33  -3.46  0  0  0  0  
1001  1071  0.00435  0.02808  0.00536  221.0  0  0  0.0  0.0  1  0  0  -77.96  -7.45  78.23  8.64  0  0  0  0  
1001  1071  0.00435  0.02808  0.00536  221.0  0  0  0.0  0.0  1  0  0  -77.96  -7.45  78.23  8.64  0  0  0  0  
1002  1007  0.07776  0.46693  0.06336  98.0  0  0  0.0  0.0  1  0  0  1.12  -5.05  -1.12  -1.61  0  0  0  0  
1010  1002  0.05552000000000001  0.1357  0.017769999999999998  98.0  0  0  0.0  0.0  1  0  0  16.68  -2.2  -16.53  0.68  0  0  0  0  
1004  1003  0.0045  0.11582  0.0  250.0  0  0  1.0  0.0  1  0  0  -28.13  6.79  28.16  -5.85  0  0  0  0  
1022  1003  0.00485  0.02012  0.0034100000000000003  221.0  0  0  0.0  0.0  1  0  0  74.87  -4.97  -74.6  5.71  0  0  0  0  
1055  1003  0.01574  0.03782  0.00513  196.0  0  0  0.0  0.0  1  0  0  -46.11  0.13  46.44  0.14  0  0  0  0  
1004  3133  0.0042  0.03  0.055  523.0  0  0  0.0  0.0  1  0  0  186.38  -37.17  -184.93  41.78  0  0  0  0  
1006  1005  0.00602  0.14707  0.0  42.0  0  0  1.0  0.0  1  0  0  25.73  -4.94  -25.69  5.94  0  0  0  0  
1025  1005  0.01842  0.0821  0.01204  149.0  0  0  0.0  0.0  1  0  0  42.04  5.43  -41.73  -5.26  0  0  0  0  
1005  1061  0.00599  0.02484  0.004220000000000001  221.0  0  0  0.0  0.0  1  0  0  75.86  -24.04  -75.49  25.14  0  0  0  0  
1067  1005  0.01711  0.04181  0.00548  274.4  0  0  0.0  0.0  1  0  0  8.54  -23.66  -8.44  23.36  0  0  0  0  
1007  1015  0.06224  0.37375  0.05072  98.0  0  0  0.0  0.0  1  0  0  -1.23  -3.02  1.23  -2.37  0  0  0  0  
1031  1007  0.04803  0.27434000000000003  0.04123  98.0  0  0  0.0  0.0  1  0  0  4.67  -6.06  -4.66  1.82  0  0  0  0  
1009  1008  0.00455  0.09471  0.0  120.0  0  0  1.0  0.0  1  0  0  61.87  -11.88  -61.7  15.52  0  0  0  0  
1008  1032  0.04501  0.11002  0.01441  98.0  0  0  0.0  0.0  1  0  0  57.28  -7.11  -55.86  9.08  0  0  0  0  
1008  1069  0.0083  0.03628  0.005529999999999999  149.0  0  0  0.0  0.0  1  0  0  4.42  -8.41  -4.41  7.86  0  0  0  0  
1011  1010  0.007209999999999999  0.3246  0.0  46.0  0  0  1.0  0.0  1  0  0  9.99  0.0  -9.98  0.3  0  0  0  0  
1010  1015  0.04703  0.28243  0.03833  98.0  0  0  0.0  0.0  1  0  0  8.78  -4.1  -8.74  0.24  0  0  0  0  
1010  1030  0.0616  0.3699  0.0502  98.0  0  0  0.0  0.0  1  0  0  -15.48  2.46  15.64  -6.82  0  0  0  0  
1012  1087  0.049339999999999995  0.20469  0.034730000000000004  149.0  0  0  0.0  0.0  1  0  0  -76.33  23.14  79.33  -14.38  0  0  0  0  
3051  1012  0.0571  0.24977  0.03804  149.0  0  0  0.0  0.0  1  0  0  -70.39  20.86  73.34  -12.0  0  0  0  0  
1013  1031  0.04509  0.27078  0.03675  98.0  0  0  0.0  0.0  1  0  0  14.02  -6.68  -13.92  3.45  0  0  0  0  
1047  1013  0.009470000000000001  0.06117  0.01167  221.0  0  0  0.0  0.0  1  0  0  58.63  -12.77  -58.3  13.71  0  0  0  0  
1086  1013  0.079  0.19311  0.02529  98.0  0  0  0.0  0.0  1  0  0  -14.73  13.47  15.06  -15.32  0  0  0  0  
1014  1047  0.035660000000000004  0.14794000000000002  0.0251  149.0  0  0  0.0  0.0  1  0  0  17.07  1.15  -16.97  -3.32  0  0  0  0  
1014  1083  0.04105  0.18293  0.02682  149.0  0  0  0.0  0.0  1  0  0  -19.29  -1.78  19.44  -0.39  0  0  0  0  
1016  1034  0.01828  0.10976  0.01489  98.0  0  0  0.0  0.0  1  0  0  -16.71  20.86  16.84  -21.64  0  0  0  0  
1068  1016  0.02773  0.15837  0.0238  98.0  0  0  0.0  0.0  1  0  0  -13.65  -21.62  13.82  20.15  0  0  0  0  
1018  1017  0.03227  0.07887000000000001  0.010329999999999999  98.0  0  0  0.0  0.0  1  0  0  26.0  -6.1  -25.78  5.62  0  0  0  0  
1017  1029  0.03244  0.14188  0.02161  163.9  0  0  0.0  0.0  1  0  0  37.19  -31.71  -36.43  32.81  0  0  0  0  
1037  1017  0.007520000000000001  0.03352  0.00491  221.0  0  0  0.0  0.0  1  0  0  -55.92  -5.11  56.17  5.7  0  0  0  0  
1047  1017  0.036000000000000004  0.156  0.024  150.0  0  0  0.0  0.0  1  0  0  88.7  -5.59  -85.92  15.19  0  0  0  0  
1024  1018  0.01094  0.06572  0.00892  98.0  0  0  0.0  0.0  1  0  0  26.15  -6.49  -26.07  6.08  0  0  0  0  
1019  1040  0.04978  0.20651  0.035039999999999995  149.0  0  0  0.0  0.0  1  0  0  -13.42  13.57  13.61  -16.39  0  0  0  0  
1019  1045  0.01522  0.0372  0.00487  287.3  0  0  0.0  0.0  1  0  0  108.25  30.63  -106.43  -26.69  0  0  0  0  
1019  1071  0.0044  0.027999999999999997  0.0054  225.0  0  0  0.0  0.0  1  0  0  -46.24  103.08  46.77  -100.25  0  0  0  0  
1071  1019  0.0044  0.027999999999999997  0.0054  225.0  0  0  0.0  0.0  1  0  0  46.77  -100.25  -46.24  103.08  0  0  0  0  
1019  1084  0.03  0.16  0.025  330.0  0  0  0.0  0.0  1  0  0  -64.13  9.51  65.32  -5.8  0  0  0  0  
1021  1020  0.0032700000000000003  0.07812000000000001  0.0  250.0  0  0  1.0  0.0  1  0  0  149.63  -28.73  -148.88  46.65  0  0  0  0  
1025  1020  0.00828  0.034339999999999996  0.00583  149.0  0  0  0.0  0.0  1  0  0  50.74  -29.09  -50.47  29.59  0  0  0  0  
1084  1020  0.01056  0.06337000000000001  0.0086  221.0  0  0  0.0  0.0  1  0  0  -33.49  16.89  33.63  -16.97  0  0  0  0  
1020  3059  0.0189  0.06  0.006  300.0  0  0  0.0  0.0  1  0  0  64.15  5.43  -63.41  -3.72  0  0  0  0  
1020  3130  0.00996  0.06938  0.011340000000000001  221.0  0  0  0.0  0.0  1  0  0  101.57  10.96  -100.59  -5.31  0  0  0  0  
1023  1022  0.00535  0.11732999999999999  0.0  250.0  0  0  1.0  0.0  1  0  0  135.0  -1.36  -134.04  22.32  0  0  0  0  
1022  1028  0.01433  0.09253  0.01765  221.0  0  0  0.0  0.0  1  0  0  29.59  -8.68  -29.46  7.69  0  0  0  0  
1022  1028  0.01433  0.09253  0.01765  221.0  0  0  0.0  0.0  1  0  0  29.59  -8.68  -29.46  7.69  0  0  0  0  
1024  1090  0.01414  0.06302999999999999  0.00924  149.0  0  0  0.0  0.0  1  0  0  -89.19  -11.37  90.34  15.52  0  0  0  0  
1026  1025  0.0042  0.18045999999999998  0.0  200.0  0  0  1.0  0.0  1  0  0  93.15  -7.89  -92.78  23.66  0  0  0  0  
1027  1045  0.02505  0.10957  0.01669  221.0  0  0  0.0  0.0  1  0  0  -18.44  28.63  18.72  -29.11  0  0  0  0  
1056  1027  0.03121  0.0763  0.00999  250.0  0  0  0.0  0.0  1  0  0  85.2  -31.92  -82.77  36.79  0  0  0  0  
1028  3109  0.00428  0.01875  0.00286  250.0  0  0  0.0  0.0  1  0  0  48.9  -18.21  -48.79  18.4  0  0  0  0  
1029  1056  0.02054  0.11732999999999999  0.01763  221.0  0  0  0.0  0.0  1  0  0  -46.75  8.55  47.19  -7.9  0  0  0  0  
1030  1038  0.07404  0.42285  0.06354  98.0  0  0  0.0  0.0  1  0  0  -23.59  1.38  24.0  -5.7  0  0  0  0  
1083  1030  0.06537000000000001  0.37334  0.0561  98.0  0  0  0.0  0.0  1  0  0  16.85  -3.36  -16.67  -1.54  0  0  0  0  
1033  1032  0.00283  0.06758  0.0  187.0  0  0  1.0  0.0  1  0  0  -119.99  40.58  120.41  -30.36  0  0  0  0  
1032  1036  0.01956  0.11746  0.01594  127.4  0  0  0.0  0.0  1  0  0  3.77  5.11  -3.76  -6.67  0  0  0  0  
1038  1032  0.045  0.11  0.015  155.0  0  0  0.0  0.0  1  0  0  70.51  -12.37  -68.32  16.16  0  0  0  0  
1033  1081  0.003  0.031  0.059000000000000004  548.0  0  0  0.0  0.0  1  0  0  101.33  -11.28  -101.03  8.04  0  0  0  0  
1033  3050  0.0139  0.136  0.262  647.0  0  0  0.0  0.0  1  0  0  227.16  -3.6  -220.39  42.08  0  0  0  0  
1035  1034  0.004379999999999999  0.08496000000000001  0.0  130.0  0  0  1.0  0.0  1  0  0  67.5  -12.96  -67.29  16.97  0  0  0  0  
1067  1034  0.00795  0.04771  0.00647  98.0  0  0  0.0  0.0  1  0  0  -50.25  -4.12  50.45  4.66  0  0  0  0  
1088  1036  0.02065  0.11793  0.01772  98.0  0  0  0.0  0.0  1  0  0  9.86  -4.46  -9.84  2.82  0  0  0  0  
1037  1071  0.006690000000000001  0.04319  0.00824  300.0  0  0  0.0  0.0  1  0  0  -46.31  -23.86  46.5  24.22  0  0  0  0  
1039  1038  0.00201  0.08591  0.0  200.0  0  0  1.0  0.0  1  0  0  110.63  -21.24  -110.38  32.04  0  0  0  0  
1082  1038  0.01115  0.04969  0.0072900000000000005  149.0  0  0  0.0  0.0  1  0  0  61.38  -9.07  -60.97  10.11  0  0  0  0  
1083  1038  0.01  0.05  0.006999999999999999  221.0  0  0  0.0  0.0  1  0  0  -76.23  26.41  76.84  -24.08  0  0  0  0  
1040  1090  0.029910000000000003  0.13329000000000002  0.01955  149.0  0  0  0.0  0.0  1  0  0  -57.97  3.82  58.97  -1.37  0  0  0  0  
1042  1041  0.00419  0.11123  0.0  145.0  0  0  1.0  0.0  1  0  0  0.0  0.0  0.0  0.0  0  0  0  0  
1043  1041  0.003  0.12844  0.0  95.0  0  0  1.0  0.0  1  0  0  44.1  -4.93  -44.04  7.46  0  0  0  0  
1065  1041  0.00386  0.02203  0.00331  98.0  0  0  0.0  0.0  1  0  0  15.96  8.54  -15.94  -8.8  0  0  0  0  
1041  1067  0.0039299999999999995  0.01722  0.00262  149.0  0  0  0.0  0.0  1  0  0  59.98  1.34  -59.84  -0.99  0  0  0  0  
1044  3019  0.03857  0.17192000000000002  0.02521  149.0  0  0  0.0  0.0  1  0  0  46.87  -16.89  -45.97  18.29  0  0  0  0  
3130  1044  0.02731  0.19029000000000001  0.031110000000000002  221.0  0  0  0.0  0.0  1  0  0  62.61  -8.61  -61.56  12.73  0  0  0  0  
1045  1064  0.00545  0.037939999999999995  0.0062  221.0  0  0  0.0  0.0  1  0  0  -10.85  27.87  10.9  -28.15  0  0  0  0  
1087  1046  0.032619999999999996  0.14269  0.021730000000000003  149.0  0  0  0.0  0.0  1  0  0  78.22  -14.58  -76.29  20.74  0  0  0  0  
1046  3009  0.05654  0.23454  0.0398  149.0  0  0  0.0  0.0  1  0  0  65.2  -9.97  -62.9  15.31  0  0  0  0  
1048  1047  0.00335  0.06576  0.0  390.0  0  0  1.0  0.0  1  0  0  0.0  0.0  0.0  0.0  0  0  0  0  
1049  1047  0.0027600000000000003  0.11782999999999999  0.0  390.0  0  0  1.0  0.0  1  0  0  0.0  0.0  0.0  0.0  0  0  0  0  
1050  1047  0.00313  0.09941  0.0  124.0  0  0  1.0  0.0  1  0  0  89.27  -9.92  -89.02  17.93  0  0  0  0  
1051  1047  0.0056  0.1283  0.0  117.0  0  0  1.0  0.0  1  0  0  89.27  -7.94  -88.82  18.25  0  0  0  0  
1052  1047  0.0036799999999999997  0.0826  0.0  110.0  0  0  1.0  0.0  1  0  0  89.27  -9.92  -88.97  16.53  0  0  0  0  
1053  1047  0.0023  0.08807999999999999  0.0  250.0  0  0  1.0  0.0  1  0  0  -81.52  22.21  81.68  -16.25  0  0  0  0  
1047  1085  0.009470000000000001  0.06117  0.01167  221.0  0  0  0.0  0.0  1  0  0  54.77  -14.78  -54.47  15.49  0  0  0  0  
1053  1081  0.003  0.03  0.06  548.0  0  0  0.0  0.0  1  0  0  81.52  -22.21  -81.32  17.87  0  0  0  0  
1054  1056  0.022019999999999998  0.09633  0.014669999999999999  149.0  0  0  0.0  0.0  1  0  0  -14.46  -15.06  14.55  13.92  0  0  0  0  
1089  1054  0.08737  0.21356999999999998  0.027960000000000002  98.0  0  0  0.0  0.0  1  0  0  0.66  -13.3  -0.53  10.82  0  0  0  0  
1055  1089  0.049819999999999996  0.12179000000000001  0.01595  176.4  0  0  0.0  0.0  1  0  0  42.13  -1.25  -41.26  1.8  0  0  0  0  
1057  1056  0.00315  0.1312  0.0  160.0  0  0  1.0  0.0  1  0  0  0.0  0.0  0.0  0.0  0  0  0  0  
1056  1061  0.02267  0.12946  0.01945  150.0  0  0  0.0  0.0  1  0  0  -58.57  24.47  59.44  -21.52  0  0  0  0  
1056  1065  0.022690000000000002  0.12962  0.01948  250.0  0  0  0.0  0.0  1  0  0  -88.37  36.67  90.34  -27.42  0  0  0  0  
1059  1058  0.02655  0.46187  0.0  33.0  0  0  1.0  0.0  1  0  0  0.0  0.0  0.0  0.0  0  0  0  0  
1060  1058  0.00894  0.38854  0.0  27.0  0  0  1.0  0.0  1  0  0  0.0  0.0  0.0  0.0  0  0  0  0  
1069  1058  0.0074  0.05155  0.00843  221.0  0  0  0.0  0.0  1  0  0  87.47  -7.27  -86.93  10.13  0  0  0  0  
1069  1058  0.0074  0.05155  0.00843  221.0  0  0  0.0  0.0  1  0  0  87.47  -7.27  -86.93  10.13  0  0  0  0  
1058  1087  0.01573  0.10955999999999999  0.01791  221.0  0  0  0.0  0.0  1  0  0  80.21  -12.03  -79.23  16.95  0  0  0  0  
1058  1087  0.01573  0.10955999999999999  0.01791  221.0  0  0  0.0  0.0  1  0  0  80.21  -12.03  -79.23  16.95  0  0  0  0  
1062  1061  0.0163  0.31787  0.0  29.0  0  0  1.0  0.0  1  0  0  0.0  0.0  0.0  0.0  0  0  0  0  
1063  1061  0.0056700000000000006  0.10409000000000002  0.0  260.0  0  0  1.0  0.0  1  0  0  0.0  0.0  0.0  0.0  0  0  0  0  
1061  3042  0.054000000000000006  0.18  0.027999999999999997  221.0  0  0  0.0  0.0  1  0  0  16.04  -3.61  -15.9  1.2  0  0  0  0  
1066  1065  0.0050799999999999994  0.12315  0.0  200.0  0  0  1.0  0.0  1  0  0  106.88  -4.79  -106.3  18.88  0  0  0  0  
1088  1068  0.02962  0.16921  0.02543  98.0  0  0  0.0  0.0  1  0  0  46.39  -3.66  -45.75  4.79  0  0  0  0  
1070  1069  0.00297  0.07  0.0  220.0  0  0  1.0  0.0  1  0  0  120.38  16.42  -119.97  -6.87  0  0  0  0  
1082  1069  0.02137  0.0952  0.01396  149.0  0  0  0.0  0.0  1  0  0  51.12  -12.53  -50.56  13.54  0  0  0  0  
1072  1071  0.0052899999999999996  0.08551  0.0  240.0  0  0  1.0  0.0  1  0  0  191.85  10.71  -189.93  20.24  0  0  0  0  
1073  1071  0.00499  0.14254  0.0  240.0  0  0  1.0  0.0  1  0  0  191.85  23.64  -190.02  28.56  0  0  0  0  
1074  1071  0.00575  0.12453  0.0  240.0  0  0  1.0  0.0  1  0  0  191.85  18.7  -189.75  26.65  0  0  0  0  
1075  1071  0.00373  0.09967000000000001  0.0  240.0  0  0  1.0  0.0  1  0  0  191.85  17.01  -190.49  19.23  0  0  0  0  
1076  1071  0.00141  0.04937  0.0  230.0  0  0  1.0  0.0  1  0  0  0.0  0.0  0.0  0.0  0  0  0  0  
1077  1071  0.006409999999999999  0.12047000000000001  0.0  230.0  0  0  1.0  0.0  1  0  0  0.0  0.0  0.0  0.0  0  0  0  0  
1078  1071  0.00533  0.19087  0.0  137.0  0  0  1.0  0.0  1  0  0  95.36  9.08  -94.88  8.09  0  0  0  0  
1079  1071  0.00013000000000000002  0.046  0.0  2000.0  0  0  1.0  0.0  1  0  0  -633.23  130.28  633.75  54.34  0  0  0  0  
1080  1071  0.01206  0.20207999999999998  0.0  136.0  0  0  1.0  0.0  1  0  0  95.36  6.37  -94.28  11.73  0  0  0  0  
1081  1071  0.0016699999999999998  0.0665  0.0  350.0  0  0  1.0  0.0  1  0  0  72.47  40.06  -72.36  -35.76  0  0  0  0  
3048  1079  0.0013  0.015  1.02  2300.0  0  0  0.0  0.0  1  0  0  -411.33  38.06  413.52  -119.67  0  0  0  0  
3048  1079  0.0013  0.015  1.02  2300.0  0  0  0.0  0.0  1  0  0  -411.33  38.06  413.52  -119.67  0  0  0  0  
1081  3058  0.0091  0.08900000000000001  0.171  548.0  0  0  0.0  0.0  1  0  0  109.89  -20.58  -108.84  12.6  0  0  0  0  
1084  3130  0.02049  0.09131  0.01339  221.0  0  0  0.0  0.0  1  0  0  54.79  13.5  -54.17  -12.19  0  0  0  0  
1085  1086  0.03392  0.14837999999999998  0.0226  149.0  0  0  0.0  0.0  1  0  0  25.22  -16.09  -24.94  14.96  0  0  0  0  
1090  1085  0.02018  0.13785999999999998  0.023459999999999998  221.0  0  0  0.0  0.0  1  0  0  -7.94  3.11  7.95  -5.44  0  0  0  0  
2029  1091  0.0389  0.17144  0.0798  187.0  0  0  0.0  0.0  1  0  0  -19.83  -4.83  19.98  -2.94  0  0  0  0  
1091  2048  0.02193  0.09667  0.045  187.0  0  0  0.0  0.0  1  0  0  8.24  -4.12  -8.23  -0.6  0  0  0  0  
2098  1091  0.00554  0.02443  0.01137  187.0  0  0  0.0  0.0  1  0  0  39.92  -4.61  -39.84  3.77  0  0  0  0  
2022  2001  0.00839  0.036969999999999996  0.01721  187.0  0  0  0.0  0.0  1  0  0  65.82  6.74  -65.47  -6.93  0  0  0  0  
2027  2001  0.00955  0.040619999999999996  0.020319999999999998  187.0  0  0  0.0  0.0  1  0  0  -17.08  4.83  17.11  -6.77  0  0  0  0  
2003  2002  0.0003  0.01986  0.0  981.0  0  0  1.0  0.0  1  0  0  -203.56  16.71  203.68  -8.78  0  0  0  0  
2004  2002  0.00022  0.01466  0.0  635.0  0  0  1.0  0.0  1  0  0  0.0  0.0  0.0  0.0  0  0  0  0  
2005  2002  0.00033  0.01714  0.0  645.0  0  0  1.0  0.0  1  0  0  0.0  0.0  0.0  0.0  0  0  0  0  
2006  2002  0.00036  0.026789999999999998  0.0  636.0  0  0  1.0  0.0  1  0  0  0.0  0.0  0.0  0.0  0  0  0  0  
2021  2002  0.0009699999999999999  0.01175  0.78032  2295.0  0  0  0.0  0.0  1  0  0  725.68  -84.58  -720.74  63.31  0  0  0  0  
2002  2101  0.00031  0.0037  0.24573000000000003  2020.0  0  0  0.0  0.0  1  0  0  517.06  -54.53  -516.26  38.5  0  0  0  0  
2038  2003  0.0035299999999999997  0.020669999999999997  0.010320000000000001  251.0  0  0  0.0  0.0  1  0  0  -42.06  -9.63  42.12  8.93  0  0  0  0  
2003  2047  0.0013  0.0099  0.0052  310.0  0  0  0.0  0.0  1  0  0  161.44  -25.64  -161.11  27.62  0  0  0  0  
2007  2114  0.008879999999999999  0.052070000000000005  0.026000000000000002  251.0  0  0  0.0  0.0  1  0  0  -75.26  -1.75  75.75  1.98  0  0  0  0  
2007  2122  0.00861  0.036610000000000004  0.01831  187.0  0  0  0.0  0.0  1  0  0  65.72  -0.96  -65.35  0.65  0  0  0  0  
2014  2008  0.02253  0.09931  0.04623  187.0  0  0  0.0  0.0  1  0  0  -8.86  0.58  8.87  -5.25  0  0  0  0  
2008  2052  0.01877  0.08271  0.0385  187.0  0  0  0.0  0.0  1  0  0  -16.94  2.97  16.99  -6.67  0  0  0  0  
2009  2049  0.012240000000000001  0.07176  0.03583  251.0  0  0  0.0  0.0  1  0  0  -102.36  27.34  103.67  -23.46  0  0  0  0  
2009  2082  0.00735  0.03126  0.01563  187.0  0  0  0.0  0.0  1  0  0  -9.03  69.51  9.38  -69.65  0  0  0  0  
2109  2009  0.00725  0.03084  0.01542  250.0  0  0  0.0  0.0  1  0  0  -71.83  -31.36  72.26  31.57  0  0  0  0  
2061  2010  0.024390000000000002  0.10747999999999999  0.05003  187.0  0  0  0.0  0.0  1  0  0  -15.05  -3.5  15.1  -1.55  0  0  0  0  
...